0,   100.00          / PSS/E-29.3    WED, SEP 15 2021  21:04
   SE SNAPSHOT 15-09-2021 PEAK CASE 18:00
   FULL COPY OF SYNTHETIC
     1,'AAA    3    ', 111.0000,4,     0.000,     0.000, 327,   1,0.00000,   0.0000,   1
222222,'PRPR C D    ',  42.0000,1,     0.000,     0.000, 694,  24,1.11117,  20.0606,   7
0 / END OF BUS DATA, BEGIN LOAD DATA
     1,'1 ',1, 327,   1,     0.000,     0.000,     0.000,     0.000,     0.000,     0.000,   1
222222,'99',1, 694,  24,     0.003,     0.003,     0.000,     0.000,     0.000,     0.000,   7
0 / END OF LOAD DATA, BEGIN GENERATOR DATA
   104,'1 ',    33.800,  -127.243,   100.000,  -110.000,0.91106,     0,   174.000,   0.00000,   1.00000,   0.00000,   0.00000,1.00000,1,  100.0,   150.000,     0.000,   3,1.0000
0 / END OF GENERATOR DATA, BEGIN BRANCH DATA
0 / END OF BRANCH DATA, BEGIN TRANSFORMER DATA
0 / END OF TRANSFORMER DATA, BEGIN AREA DATA
0 / END OF AREA DATA, BEGIN TWO-TERMINAL DC DATA
0 / END OF TWO-TERMINAL DC DATA, BEGIN VSC DC LINE DATA
0 / END OF VSC DC LINE DATA, BEGIN SWITCHED SHUNT DATA
0 / END OF SWITCHED SHUNT DATA, BEGIN IMPEDANCE CORRECTION DATA
0 / END OF IMPEDANCE CORRECTION DATA, BEGIN MULTI-TERMINAL DC DATA
0 / END OF MULTI-TERMINAL DC DATA, BEGIN MULTI-SECTION LINE DATA
0 / END OF MULTI-SECTION LINE DATA, BEGIN ZONE DATA
0 / END OF ZONE DATA, BEGIN INTER-AREA TRANSFER DATA
0 / END OF INTER-AREA TRANSFER DATA, BEGIN OWNER DATA
0 / END OF OWNER DATA, BEGIN FACTS DEVICE DATA
0 / END OF FACTS DEVICE DATA
